MODPATH_PATHLINE_FILE 6 0                                                       
 1   0.000000000000000E+00
END HEADER
         1     1     0     1   0.000000000000000E+00   0.750000000000000E+03   0.262500000000000E+05  -0.250000000000000E+03    1    1    1  1  0.5000000E+00   0.5000000E+00   0.5000000E+00     1
         1     1    -1     1   0.000000000000000E+00   0.750000000000000E+03   0.262500000000000E+05  -0.250000000000000E+03    1    1    1  1  0.5000000E+00   0.5000000E+00   0.5000000E+00     1
         2     1     0     1   0.000000000000000E+00   0.750000000000000E+03   0.247500000000000E+05  -0.250000000000000E+03    1    2    1  1  0.5000000E+00   0.5000000E+00   0.5000000E+00     1
         2     1    -1     1   0.000000000000000E+00   0.750000000000000E+03   0.247500000000000E+05  -0.250000000000000E+03    1    2    1  1  0.5000000E+00   0.5000000E+00   0.5000000E+00     1
         3     1     0     1   0.000000000000000E+00   0.750000000000000E+03   0.232500000000000E+05  -0.250000000000000E+03    1    3    1  1  0.5000000E+00   0.5000000E+00   0.5000000E+00     1
         3     1    -1     1   0.000000000000000E+00   0.750000000000000E+03   0.232500000000000E+05  -0.250000000000000E+03    1    3    1  1  0.5000000E+00   0.5000000E+00   0.5000000E+00     1
         4     1     0     1   0.000000000000000E+00   0.750000000000000E+03   0.217500000000000E+05  -0.250000000000000E+03    1    4    1  1  0.5000000E+00   0.5000000E+00   0.5000000E+00     1
         4     1    -1     1   0.000000000000000E+00   0.750000000000000E+03   0.217500000000000E+05  -0.250000000000000E+03    1    4    1  1  0.5000000E+00   0.5000000E+00   0.5000000E+00     1
         5     1     0     1   0.000000000000000E+00   0.750000000000000E+03   0.202500000000000E+05  -0.250000000000000E+03    1    5    1  1  0.5000000E+00   0.5000000E+00   0.5000000E+00     1
         5     1    -1     1   0.000000000000000E+00   0.750000000000000E+03   0.202500000000000E+05  -0.250000000000000E+03    1    5    1  1  0.5000000E+00   0.5000000E+00   0.5000000E+00     1
         6     1     0     1   0.000000000000000E+00   0.750000000000000E+03   0.187500000000000E+05  -0.250000000000000E+03    1    6    1  1  0.5000000E+00   0.5000000E+00   0.5000000E+00     1
         6     1    -1     1   0.000000000000000E+00   0.750000000000000E+03   0.187500000000000E+05  -0.250000000000000E+03    1    6    1  1  0.5000000E+00   0.5000000E+00   0.5000000E+00     1
         7     1     0     1   0.000000000000000E+00   0.750000000000000E+03   0.172500000000000E+05  -0.222350000000000E+03    1    7    1  1  0.5000000E+00   0.5000000E+00   0.5000000E+00     1
         7     1    -1     1   0.106569358096882E+07   0.705760825011911E+03   0.180000000000000E+05  -0.241756156300073E+03    1    6    1  1  0.4705072E+00   0.0000000E+00   0.5164877E+00     1
         7     1    -1     1   0.106569358096882E+07   0.705760825011911E+03   0.180000000000000E+05  -0.241756156300073E+03    1    6    1  1  0.4705072E+00   0.0000000E+00   0.5164877E+00     1
         8     1     0     1   0.000000000000000E+00   0.750000000000000E+03   0.157500000000000E+05  -0.199670000000000E+03    1    8    1  1  0.5000000E+00   0.5000000E+00   0.5000000E+00     1
         8     1    -1     1   0.132741383554171E+07   0.696079869217037E+03   0.165000000000000E+05  -0.207136365935949E+03    1    7    1  1  0.4640532E+00   0.0000000E+00   0.5304273E+00     1
         8     1    -1     1   0.356989616811895E+07   0.612490194038970E+03   0.180000000000000E+05  -0.218791199824388E+03    1    6    1  1  0.4083268E+00   0.0000000E+00   0.5624176E+00     1
         8     1    -1     1   0.356989616811895E+07   0.612490194038970E+03   0.180000000000000E+05  -0.218791199824388E+03    1    6    1  1  0.4083268E+00   0.0000000E+00   0.5624176E+00     1
         9     1     0     1   0.000000000000000E+00   0.750000000000000E+03   0.142500000000000E+05  -0.182820000000000E+03    1    9    1  1  0.5000000E+00   0.5000000E+00   0.5000000E+00     1
         9     1    -1     1   0.185712147464794E+07   0.672536789650479E+03   0.150000000000000E+05  -0.173871430699890E+03    1    8    1  1  0.4483579E+00   0.0000000E+00   0.5515971E+00     1
         9     1    -1     1   0.472382382453476E+07   0.572452958307319E+03   0.165000000000000E+05  -0.168122585308327E+03    1    7    1  1  0.3816353E+00   0.0000000E+00   0.6084548E+00     1
         9     1    -1     1   0.696630615711200E+07   0.503709184847161E+03   0.180000000000000E+05  -0.182435290318418E+03    1    6    1  1  0.3358061E+00   0.0000000E+00   0.6351294E+00     1
         9     1    -1     1   0.696630615711200E+07   0.503709184847161E+03   0.180000000000000E+05  -0.182435290318418E+03    1    6    1  1  0.3358061E+00   0.0000000E+00   0.6351294E+00     1
        10     1     0     1   0.000000000000000E+00   0.750000000000000E+03   0.127500000000000E+05  -0.172560000000000E+03    1   10    1  1  0.5000000E+00   0.5000000E+00   0.5000000E+00     1
        10     1    -1     1   0.343597293449053E+07   0.599513055062591E+03   0.135000000000000E+05  -0.128521510740006E+03    1    9    1  1  0.3996754E+00   0.0000000E+00   0.6085970E+00     1
        10     1    -1     1   0.767108971345722E+07   0.467551139975232E+03   0.150000000000000E+05  -0.102329577034628E+03    1    8    1  1  0.3117008E+00   0.0000000E+00   0.6946808E+00     1
        10     1    -1     1   0.105377920633440E+08   0.397972330075624E+03   0.165000000000000E+05  -0.105652271867078E+03    1    7    1  1  0.2653149E+00   0.0000000E+00   0.7333955E+00     1
        10     1    -1     1   0.127802743959213E+08   0.350181294489006E+03   0.180000000000000E+05  -0.124220858757494E+03    1    6    1  1  0.2334542E+00   0.0000000E+00   0.7515583E+00     1
        10     1    -1     1   0.127802743959213E+08   0.350181294489006E+03   0.180000000000000E+05  -0.124220858757494E+03    1    6    1  1  0.2334542E+00   0.0000000E+00   0.7515583E+00     1
        11     1     0     1   0.000000000000000E+00   0.750000000000000E+03   0.112500000000000E+05  -0.423500000000000E+02    1   11    1  1  0.5000000E+00   0.5000000E+00   0.5000000E+00     1
        11     1    -1     1   0.151209581930260E+08   0.530596575119870E+03   0.120000000000000E+05  -0.992479101675702E+02    1   10    1  1  0.3537311E+00   0.0000000E+00   0.6466242E+00     1
        11     1    -1     1   0.252378971232984E+08   0.274399100531353E+03   0.135000000000000E+05  -0.187372379617163E+02    1    9    1  1  0.1829327E+00   0.0000000E+00   0.8281655E+00     1
        11     1    -1     1   0.294730139022651E+08   0.213999697217967E+03   0.150000000000000E+05  -0.166908888915740E+02    1    8    1  1  0.1426665E+00   0.0000000E+00   0.8659582E+00     1
        11     1    -1     1   0.323397162521519E+08   0.182153246684039E+03   0.165000000000000E+05  -0.308726090975697E+02    1    7    1  1  0.1214355E+00   0.0000000E+00   0.8829548E+00     1
        11     1    -1     1   0.345821985847291E+08   0.160279132237840E+03   0.180000000000000E+05  -0.545356703753572E+02    1    6    1  1  0.1068528E+00   0.0000000E+00   0.8909287E+00     1
        11     1    -1     1   0.345821985847291E+08   0.160279132237840E+03   0.180000000000000E+05  -0.545356703753572E+02    1    6    1  1  0.1068528E+00   0.0000000E+00   0.8909287E+00     1
        12     1     0     1   0.000000000000000E+00   0.225000000000000E+04   0.262500000000000E+05   0.216660000000000E+03    1    1    2  1  0.5000000E+00   0.5000000E+00   0.5000000E+00     1
        12     1    -1     1   0.298387825721664E+07   0.150000000000000E+04   0.262475579587129E+05  -0.259216674900145E+03    1    1    1  1  0.1000000E+01   0.4983720E+00   0.4815667E+00     1
        12     1    -1     1   0.298387825721664E+07   0.150000000000000E+04   0.262475579587129E+05  -0.259216674900145E+03    1    1    1  1  0.1000000E+01   0.4983720E+00   0.4815667E+00     1
        13     1     0     1   0.000000000000000E+00   0.225000000000000E+04   0.247500000000000E+05   0.210530000000000E+03    1    2    2  1  0.5000000E+00   0.5000000E+00   0.5000000E+00     1
        13     1    -1     1   0.300672373075160E+07   0.150000000000000E+04   0.247364081063758E+05  -0.259965074744081E+03    1    2    1  1  0.1000000E+01   0.4909387E+00   0.4800699E+00     1
        13     1    -1     1   0.300672373075160E+07   0.150000000000000E+04   0.247364081063758E+05  -0.259965074744081E+03    1    2    1  1  0.1000000E+01   0.4909387E+00   0.4800699E+00     1
        14     1     0     1   0.000000000000000E+00   0.225000000000000E+04   0.232500000000000E+05   0.182950000000000E+03    1    3    2  1  0.5000000E+00   0.5000000E+00   0.5000000E+00     1
        14     1    -1     1   0.311215361457992E+07   0.150000000000000E+04   0.231776869958293E+05  -0.260606253151068E+03    1    3    1  1  0.1000000E+01   0.4517913E+00   0.4787875E+00     1
        14     1    -1     1   0.311215361457992E+07   0.150000000000000E+04   0.231776869958293E+05  -0.260606253151068E+03    1    3    1  1  0.1000000E+01   0.4517913E+00   0.4787875E+00     1
        15     1     0     1   0.000000000000000E+00   0.225000000000000E+04   0.217500000000000E+05   0.416900000000000E+02    1    4    2  1  0.5000000E+00   0.5000000E+00   0.5000000E+00     1
        15     1    -1     1   0.513331441264129E+07   0.150000000000000E+04   0.216094043463107E+05  -0.239640866503918E+03    1    4    1  1  0.1000000E+01   0.4062696E+00   0.5207183E+00     1
        15     1    -1     1   0.513331441264129E+07   0.150000000000000E+04   0.216094043463107E+05  -0.239640866503918E+03    1    4    1  1  0.1000000E+01   0.4062696E+00   0.5207183E+00     1
        16     1     0     1   0.000000000000000E+00   0.225000000000000E+04   0.202500000000000E+05  -0.291400000000000E+02    1    5    2  1  0.5000000E+00   0.5000000E+00   0.5000000E+00     1
        16     1    -1     1   0.685566921172455E+07   0.150000000000000E+04   0.201581363041063E+05  -0.230278292900438E+03    1    5    1  1  0.1000000E+01   0.4387575E+00   0.5394434E+00     1
        16     1    -1     1   0.685566921172455E+07   0.150000000000000E+04   0.201581363041063E+05  -0.230278292900438E+03    1    5    1  1  0.1000000E+01   0.4387575E+00   0.5394434E+00     1
        17     1     0     1   0.000000000000000E+00   0.225000000000000E+04   0.187500000000000E+05  -0.612000000000000E+02    1    6    2  1  0.5000000E+00   0.5000000E+00   0.5000000E+00     1
        17     1    -1     1   0.807356322151669E+07   0.150000000000000E+04   0.187172407180859E+05  -0.227176990972632E+03    1    6    1  1  0.1000000E+01   0.4781605E+00   0.5456460E+00     1
        17     1    -1     1   0.807356322151669E+07   0.150000000000000E+04   0.187172407180859E+05  -0.227176990972632E+03    1    6    1  1  0.1000000E+01   0.4781605E+00   0.5456460E+00     1
        18     1     0     1   0.000000000000000E+00   0.225000000000000E+04   0.172500000000000E+05  -0.602900000000000E+02    1    7    2  1  0.5000000E+00   0.5000000E+00   0.5000000E+00     1
        18     1    -1     1   0.944397827424018E+07   0.150000000000000E+04   0.172762510564930E+05  -0.194360464783067E+03    1    7    1  1  0.1000000E+01   0.5175007E+00   0.5559791E+00     1
        18     1    -1     1   0.104706227395528E+08   0.141466962273080E+04   0.180000000000000E+05  -0.214953527758064E+03    1    6    1  1  0.9431131E+00   0.0000000E+00   0.5700929E+00     1
        18     1    -1     1   0.104706227395528E+08   0.141466962273080E+04   0.180000000000000E+05  -0.214953527758064E+03    1    6    1  1  0.9431131E+00   0.0000000E+00   0.5700929E+00     1
        19     1     0     1   0.000000000000000E+00   0.225000000000000E+04   0.157500000000000E+05  -0.400100000000000E+02    1    8    2  1  0.5000000E+00   0.5000000E+00   0.5000000E+00     1
        19     1    -1     1   0.963790704931231E+07   0.150000000000000E+04   0.158066550043423E+05  -0.163523824419663E+03    1    8    1  1  0.1000000E+01   0.5377700E+00   0.5722924E+00     1
        19     1    -1     1   0.108584265195174E+08   0.140054917677826E+04   0.165000000000000E+05  -0.174207858782191E+03    1    7    1  1  0.9336995E+00   0.0000000E+00   0.5962843E+00     1
        19     1    -1     1   0.131009088520946E+08   0.123236236958114E+04   0.180000000000000E+05  -0.188105995596805E+03    1    6    1  1  0.8215749E+00   0.0000000E+00   0.6237880E+00     1
        19     1    -1     1   0.131009088520946E+08   0.123236236958114E+04   0.180000000000000E+05  -0.188105995596805E+03    1    6    1  1  0.8215749E+00   0.0000000E+00   0.6237880E+00     1
        20     1     0     1   0.000000000000000E+00   0.225000000000000E+04   0.142500000000000E+05  -0.160700000000000E+02    1    9    2  1  0.5000000E+00   0.5000000E+00   0.5000000E+00     1
        20     1    -1     1   0.939313937591426E+07   0.150000000000000E+04   0.143156169079328E+05  -0.139329247078882E+03    1    9    1  1  0.1000000E+01   0.5437446E+00   0.5869815E+00     1
        20     1    -1     1   0.110706255028082E+08   0.135933231901315E+04   0.150000000000000E+05  -0.136830095716482E+03    1    8    1  1  0.9062215E+00   0.0000000E+00   0.6256798E+00     1
        20     1    -1     1   0.139373278526950E+08   0.115704273627356E+04   0.165000000000000E+05  -0.135778108779626E+03    1    7    1  1  0.7713618E+00   0.0000000E+00   0.6731438E+00     1
        20     1    -1     1   0.161798101852723E+08   0.101809772325223E+04   0.180000000000000E+05  -0.152294328771542E+03    1    6    1  1  0.6787318E+00   0.0000000E+00   0.6954113E+00     1
        20     1    -1     1   0.161798101852723E+08   0.101809772325223E+04   0.180000000000000E+05  -0.152294328771542E+03    1    6    1  1  0.6787318E+00   0.0000000E+00   0.6954113E+00     1
        21     1     0     1   0.000000000000000E+00   0.225000000000000E+04   0.127500000000000E+05   0.125900000000000E+02    1   10    2  1  0.5000000E+00   0.5000000E+00   0.5000000E+00     1
        21     1    -1     1   0.870387914566011E+07   0.150000000000000E+04   0.128648450007221E+05  -0.129650092384474E+03    1   10    1  1  0.1000000E+01   0.5765633E+00   0.5858198E+00     1
        21     1    -1     1   0.114975983445947E+08   0.125028498749923E+04   0.135000000000000E+05  -0.102523854220615E+03    1    9    1  1  0.8335233E+00   0.0000000E+00   0.6605923E+00     1
        21     1    -1     1   0.157327151235614E+08   0.975078301069112E+03   0.150000000000000E+05  -0.820497578695403E+02    1    8    1  1  0.6500522E+00   0.0000000E+00   0.7352405E+00     1
        21     1    -1     1   0.185994174734482E+08   0.829971633698105E+03   0.165000000000000E+05  -0.879439431773790E+02    1    7    1  1  0.5533144E+00   0.0000000E+00   0.7688121E+00     1
        21     1    -1     1   0.208418998060255E+08   0.730303388233874E+03   0.180000000000000E+05  -0.107718935975654E+03    1    6    1  1  0.4868689E+00   0.0000000E+00   0.7845621E+00     1
        21     1    -1     1   0.208418998060255E+08   0.730303388233874E+03   0.180000000000000E+05  -0.107718935975654E+03    1    6    1  1  0.4868689E+00   0.0000000E+00   0.7845621E+00     1
        22     1     0     1   0.000000000000000E+00   0.225000000000000E+04   0.112500000000000E+05   0.863900000000000E+02    1   11    2  1  0.5000000E+00   0.5000000E+00   0.5000000E+00     1
        22     1    -1     1   0.210646404775383E+08   0.150000000000000E+04   0.114887586582528E+05   0.376724411618422E+01    1   11    1  1  0.1000000E+01   0.6591724E+00   0.5922345E+00     1
        22     1    -1     1   0.301564518640935E+08   0.121820944665507E+04   0.120000000000000E+05  -0.880412649024199E+02    1   10    1  1  0.8121396E+00   0.0000000E+00   0.6690375E+00     1
        22     1    -1     1   0.402733907943659E+08   0.629999498857360E+03   0.135000000000000E+05  -0.132878328095172E+02    1    9    1  1  0.4199997E+00   0.0000000E+00   0.8390643E+00     1
        22     1    -1     1   0.445085075733326E+08   0.491327055161178E+03   0.150000000000000E+05  -0.124400076261236E+02    1    8    1  1  0.3275514E+00   0.0000000E+00   0.8744600E+00     1
        22     1    -1     1   0.473752099232194E+08   0.418210022933634E+03   0.165000000000000E+05  -0.271607415480271E+02    1    7    1  1  0.2788067E+00   0.0000000E+00   0.8903785E+00     1
        22     1    -1     1   0.496176922557966E+08   0.367988717133545E+03   0.180000000000000E+05  -0.510766792558507E+02    1    6    1  1  0.2453258E+00   0.0000000E+00   0.8978466E+00     1
        22     1    -1     1   0.496176922557966E+08   0.367988717133545E+03   0.180000000000000E+05  -0.510766792558507E+02    1    6    1  1  0.2453258E+00   0.0000000E+00   0.8978466E+00     1
        23     1     0     1   0.000000000000000E+00   0.375000000000000E+04   0.262500000000000E+05   0.720890000000000E+03    1    1    3  1  0.5000000E+00   0.5000000E+00   0.5000000E+00     1
        23     1    -1     1   0.244323937795165E+07   0.300000000000000E+04   0.261799739664553E+05   0.164693134679171E+03    1    1    2  1  0.1000000E+01   0.4533160E+00   0.3960663E+00     1
        23     1    -1     1   0.829772441047195E+07   0.150000000000000E+04   0.261747270201203E+05  -0.324196471367796E+03    1    1    1  1  0.1000000E+01   0.4498180E+00   0.3516071E+00     1
        23     1    -1     1   0.829772441047195E+07   0.150000000000000E+04   0.261747270201203E+05  -0.324196471367796E+03    1    1    1  1  0.1000000E+01   0.4498180E+00   0.3516071E+00     1
        24     1     0     1   0.000000000000000E+00   0.375000000000000E+04   0.247500000000000E+05   0.718830000000000E+03    1    2    3  1  0.5000000E+00   0.5000000E+00   0.5000000E+00     1
        24     1    -1     1   0.226404641838723E+07   0.300000000000000E+04   0.244238339087391E+05   0.159959927488867E+03    1    2    2  1  0.1000000E+01   0.2825559E+00   0.3988599E+00     1
        24     1    -1     1   0.813277899200124E+07   0.150000000000000E+04   0.243897757882720E+05  -0.324398410291738E+03    1    2    1  1  0.1000000E+01   0.2598505E+00   0.3512032E+00     1
        24     1    -1     1   0.813277899200124E+07   0.150000000000000E+04   0.243897757882720E+05  -0.324398410291738E+03    1    2    1  1  0.1000000E+01   0.2598505E+00   0.3512032E+00     1
        25     1     0     1   0.000000000000000E+00   0.375000000000000E+04   0.232500000000000E+05   0.711240000000000E+03    1    3    3  1  0.5000000E+00   0.5000000E+00   0.5000000E+00     1
        25     1    -1     1   0.257354049317937E+07   0.300000000000000E+04   0.228778943748202E+05   0.113564052492968E+03    1    3    2  1  0.1000000E+01   0.2519296E+00   0.3612281E+00     1
        25     1    -1     1   0.850331500658083E+07   0.150000000000000E+04   0.226886956800694E+05  -0.345698661226044E+03    1    3    1  1  0.1000000E+01   0.1257971E+00   0.3086027E+00     1
        25     1    -1     1   0.850331500658083E+07   0.150000000000000E+04   0.226886956800694E+05  -0.345698661226044E+03    1    3    1  1  0.1000000E+01   0.1257971E+00   0.3086027E+00     1
        26     1     0     1   0.000000000000000E+00   0.375000000000000E+04   0.217500000000000E+05   0.502490000000000E+03    1    4    3  1  0.5000000E+00   0.5000000E+00   0.5000000E+00     1
        26     1    -1     1   0.622451196385200E+07   0.300000000000000E+04   0.212961354971405E+05  -0.125050337114870E+02    1    4    2  1  0.1000000E+01   0.1974237E+00   0.3916099E+00     1
        26     1    -1     1   0.171043679622027E+08   0.150000000000000E+04   0.210663132339134E+05  -0.278098271131423E+03    1    4    1  1  0.1000000E+01   0.4420882E-01   0.4438035E+00     1
        26     1    -1     1   0.171043679622027E+08   0.150000000000000E+04   0.210663132339134E+05  -0.278098271131423E+03    1    4    1  1  0.1000000E+01   0.4420882E-01   0.4438035E+00     1
        27     1     0     1   0.000000000000000E+00   0.375000000000000E+04   0.202500000000000E+05   0.302040000000000E+03    1    5    3  1  0.5000000E+00   0.5000000E+00   0.5000000E+00     1
        27     1    -1     1   0.908178613116356E+07   0.300000000000000E+04   0.199291729968653E+05  -0.404221183347379E+02    1    5    2  1  0.1000000E+01   0.2861153E+00   0.4774358E+00     1
        27     1    -1     1   0.238141230449768E+08   0.150000000000000E+04   0.197679576399413E+05  -0.218988290135675E+03    1    5    1  1  0.1000000E+01   0.1786384E+00   0.5620234E+00     1
        27     1    -1     1   0.238141230449768E+08   0.150000000000000E+04   0.197679576399413E+05  -0.218988290135675E+03    1    5    1  1  0.1000000E+01   0.1786384E+00   0.5620234E+00     1
        28     1     0     1   0.000000000000000E+00   0.375000000000000E+04   0.187500000000000E+05   0.213000000000000E+03    1    6    3  1  0.5000000E+00   0.5000000E+00   0.5000000E+00     1
        28     1    -1     1   0.106983537499152E+08   0.300000000000000E+04   0.185704401867766E+05  -0.621211486825159E+02    1    6    2  1  0.1000000E+01   0.3802935E+00   0.4981577E+00     1
        28     1    -1     1   0.281963652087623E+08   0.150000000000000E+04   0.185188536505728E+05  -0.203905720768984E+03    1    6    1  1  0.1000000E+01   0.3459024E+00   0.5921886E+00     1
        28     1    -1     1   0.281963652087623E+08   0.150000000000000E+04   0.185188536505728E+05  -0.203905720768984E+03    1    6    1  1  0.1000000E+01   0.3459024E+00   0.5921886E+00     1
        29     1     0     1   0.000000000000000E+00   0.375000000000000E+04   0.172500000000000E+05   0.170510000000000E+03    1    7    3  1  0.5000000E+00   0.5000000E+00   0.5000000E+00     1
        29     1    -1     1   0.121612374079803E+08   0.300000000000000E+04   0.172015109633426E+05  -0.919688075659240E+02    1    7    2  1  0.1000000E+01   0.4676740E+00   0.4366424E+00     1
        29     1    -1     1   0.327368349933339E+08   0.150000000000000E+04   0.172609450697144E+05  -0.189823373777612E+03    1    7    1  1  0.1000000E+01   0.5072967E+00   0.5650533E+00     1
        29     1    -1     1   0.337862310955631E+08   0.141283463046370E+04   0.180000000000000E+05  -0.210409976030589E+03    1    6    1  1  0.9418898E+00   0.0000000E+00   0.5791800E+00     1
        29     1    -1     1   0.337862310955631E+08   0.141283463046370E+04   0.180000000000000E+05  -0.210409976030589E+03    1    6    1  1  0.9418898E+00   0.0000000E+00   0.5791800E+00     1
        30     1     0     1   0.000000000000000E+00   0.375000000000000E+04   0.157500000000000E+05   0.181340000000000E+03    1    8    3  1  0.5000000E+00   0.5000000E+00   0.5000000E+00     1
        30     1    -1     1   0.128549371774167E+08   0.300000000000000E+04   0.157917932375092E+05  -0.358038950065200E+02    1    8    2  1  0.1000000E+01   0.5278622E+00   0.5084122E+00     1
        30     1    -1     1   0.340058669569667E+08   0.150000000000000E+04   0.159150901223297E+05  -0.124143601731926E+03    1    8    1  1  0.1000000E+01   0.6100601E+00   0.6510528E+00     1
        30     1    -1     1   0.350250358862262E+08   0.141648940994793E+04   0.165000000000000E+05  -0.138612543122976E+03    1    7    1  1  0.9443263E+00   0.0000000E+00   0.6674749E+00     1
        30     1    -1     1   0.372675182188035E+08   0.124638839868912E+04   0.180000000000000E+05  -0.154935663111092E+03    1    6    1  1  0.8309256E+00   0.0000000E+00   0.6901287E+00     1
        30     1    -1     1   0.372675182188035E+08   0.124638839868912E+04   0.180000000000000E+05  -0.154935663111092E+03    1    6    1  1  0.8309256E+00   0.0000000E+00   0.6901287E+00     1
        31     1     0     1   0.000000000000000E+00   0.375000000000000E+04   0.142500000000000E+05   0.194970000000000E+03    1    9    3  1  0.5000000E+00   0.5000000E+00   0.5000000E+00     1
        31     1    -1     1   0.136744465459044E+08   0.300000000000000E+04   0.143063299042559E+05  -0.566249619197974E+01    1    9    2  1  0.1000000E+01   0.5375533E+00   0.5208150E+00     1
        31     1    -1     1   0.348061379183393E+08   0.150000000000000E+04   0.144522374585157E+05  -0.886845876464900E+02    1    9    1  1  0.1000000E+01   0.6348250E+00   0.6882708E+00     1
        31     1    -1     1   0.361213327046515E+08   0.138855105154990E+04   0.150000000000000E+05  -0.939642137418838E+02    1    8    1  1  0.9257007E+00   0.0000000E+00   0.7114116E+00     1
        31     1    -1     1   0.389880350545383E+08   0.118191327144138E+04   0.165000000000000E+05  -0.983476405194933E+02    1    7    1  1  0.7879422E+00   0.0000000E+00   0.7480047E+00     1
        31     1    -1     1   0.412305173871155E+08   0.103998164718746E+04   0.180000000000000E+05  -0.117413866151931E+03    1    6    1  1  0.6933211E+00   0.0000000E+00   0.7651723E+00     1
        31     1    -1     1   0.412305173871155E+08   0.103998164718746E+04   0.180000000000000E+05  -0.117413866151931E+03    1    6    1  1  0.6933211E+00   0.0000000E+00   0.7651723E+00     1
        32     1     0     1   0.000000000000000E+00   0.375000000000000E+04   0.127500000000000E+05   0.212380000000000E+03    1   10    3  1  0.5000000E+00   0.5000000E+00   0.5000000E+00     1
        32     1    -1     1   0.145704070172089E+08   0.300000000000000E+04   0.128262859051813E+05   0.264714188147671E+02    1   10    2  1  0.1000000E+01   0.5508573E+00   0.5277628E+00     1
        32     1    -1     1   0.350380359517319E+08   0.150000000000000E+04   0.130725771064526E+05  -0.742016791471668E+02    1   10    1  1  0.1000000E+01   0.7150514E+00   0.6967166E+00     1
        32     1    -1     1   0.367962200470655E+08   0.133758709255152E+04   0.135000000000000E+05  -0.666031828562782E+02    1    9    1  1  0.8917247E+00   0.0000000E+00   0.7324336E+00     1
        32     1    -1     1   0.410313368260321E+08   0.104316388885531E+04   0.150000000000000E+05  -0.540293584533876E+02    1    8    1  1  0.6954426E+00   0.0000000E+00   0.7912813E+00     1
        32     1    -1     1   0.438980391759190E+08   0.887925037506033E+03   0.165000000000000E+05  -0.634765434023301E+02    1    7    1  1  0.5919500E+00   0.0000000E+00   0.8177469E+00     1
        32     1    -1     1   0.461405215084962E+08   0.781297380609293E+03   0.180000000000000E+05  -0.849184137561210E+02    1    6    1  1  0.5208649E+00   0.0000000E+00   0.8301632E+00     1
        32     1    -1     1   0.461405215084962E+08   0.781297380609293E+03   0.180000000000000E+05  -0.849184137561210E+02    1    6    1  1  0.5208649E+00   0.0000000E+00   0.8301632E+00     1
        33     1     0     1   0.000000000000000E+00   0.375000000000000E+04   0.112500000000000E+05   0.234480000000000E+03    1   11    3  1  0.5000000E+00   0.5000000E+00   0.5000000E+00     1
        33     1    -1     1   0.187282489037141E+08   0.300000000000000E+04   0.113072640489410E+05   0.975501896771594E+02    1   11    2  1  0.1000000E+01   0.5381760E+00   0.5223204E+00     1
        33     1    -1     1   0.594337469100680E+08   0.150000000000000E+04   0.118770851192682E+05   0.465952533908042E+02    1   11    1  1  0.1000000E+01   0.9180567E+00   0.6778905E+00     1
        33     1    -1     1   0.612988379267664E+08   0.143731822751925E+04   0.120000000000000E+05  -0.768654910851803E+02    1   10    1  1  0.9582122E+00   0.0000000E+00   0.6913890E+00     1
        33     1    -1     1   0.714157768570388E+08   0.743312051570441E+03   0.135000000000000E+05  -0.785343937789275E+01    1    9    1  1  0.4955414E+00   0.0000000E+00   0.8499331E+00     1
        33     1    -1     1   0.756508936360055E+08   0.579697796627306E+03   0.150000000000000E+05  -0.820083645378804E+01    1    8    1  1  0.3864652E+00   0.0000000E+00   0.8829383E+00     1
        33     1    -1     1   0.785175959858923E+08   0.493429837163257E+03   0.165000000000000E+05  -0.234590992463615E+02    1    7    1  1  0.3289532E+00   0.0000000E+00   0.8977818E+00     1
        33     1    -1     1   0.807600783184696E+08   0.434175660113091E+03   0.180000000000000E+05  -0.476272167741875E+02    1    6    1  1  0.2894504E+00   0.0000000E+00   0.9047456E+00     1
        33     1    -1     1   0.807600783184696E+08   0.434175660113091E+03   0.180000000000000E+05  -0.476272167741875E+02    1    6    1  1  0.2894504E+00   0.0000000E+00   0.9047456E+00     1
        34     1     0     1   0.000000000000000E+00   0.525000000000000E+04   0.262500000000000E+05   0.729170000000000E+03    1    1    4  1  0.5000000E+00   0.5000000E+00   0.5000000E+00     1
        34     1    -1     1   0.141027408381712E+07   0.450000000000000E+04   0.259317685337750E+05   0.714064540776745E+03    1    1    3  1  0.1000000E+01   0.2878457E+00   0.4863491E+00     1
        34     1    -1     1   0.576300572797026E+07   0.300000000000000E+04   0.257476397789475E+05   0.107110404577705E+03    1    1    2  1  0.1000000E+01   0.1650932E+00   0.2809008E+00     1
        34     1    -1     1   0.116174907604906E+08   0.150000000000000E+04   0.257396265371683E+05  -0.386018214262618E+03    1    1    1  1  0.1000000E+01   0.1597510E+00   0.2279636E+00     1
        34     1    -1     1   0.116174907604906E+08   0.150000000000000E+04   0.257396265371683E+05  -0.386018214262618E+03    1    1    1  1  0.1000000E+01   0.1597510E+00   0.2279636E+00     1
        35     1     0     1   0.000000000000000E+00   0.525000000000000E+04   0.247500000000000E+05   0.729020000000000E+03    1    2    4  1  0.5000000E+00   0.5000000E+00   0.5000000E+00     1
        35     1    -1     1   0.142955280499241E+07   0.450000000000000E+04   0.242961475574039E+05   0.709967719458411E+03    1    2    3  1  0.1000000E+01   0.1974317E+00   0.4822754E+00     1
        35     1    -1     1   0.300927492869744E+07   0.376003109688459E+04   0.240000000000000E+05   0.666870917330887E+03    1    3    3  1  0.5066874E+00   0.1000000E+01   0.4112618E+00     1